units metal
dimension 3
boundary p p p
atom_style atomic
variable latparam equal 2.855312

# ---------- Create Atoms ---------------------
lattice 	bcc 2.855312
Lattice spacing in x,y,z = 2.85531 2.85531 2.85531
region	whole block 0 10 0 10 0 10 units lattice
create_box   1 whole
Created orthogonal box = (0 0 0) to (28.5531 28.5531 28.5531)
create_atoms 1 region whole
Created 2000 atoms

# ---------- Define Interatomic Potential ---------------------
pair_style eam/fs
pair_coeff * * Fe_2.eam.fs Fe

compute csym all centro/atom bcc
compute eng all pe/atom
compute eatoms all reduce sum c_eng

 # ----------- EQUILIBRATION --------------------
write_dump all custom dump.img_pre_equil.cfg mass type xs ys zs
reset_timestep	0
timestep 0.001
velocity all create 300 12345 mom yes rot no
fix 2 all npt temp 300 300 0.01 iso 0 0 1 drag 1

thermo 1000
thermo_style custom step temp pe lx ly lz press pxx pyy pzz c_eatoms
dump 5 all cfg 1000 dump.equal_*.cfg mass type xs ys zs c_csym c_eng fx fy fz
dump_modify     5 element Fe

# Run for at least 10 picosecond (assuming 1 fs timestep)
write_dump all custom dump.img_post_equil.cfg mass type xs ys zs

run 20000
  2 neighbor list requests
  update every 1 steps, delay 10 steps, check yes
Step Temp PotEng Lx Ly Lz Press Pxx Pyy Pzz eatoms
0          300   -8244.8702     28.55312     28.55312     28.55312    3580.3532    3528.8837    3568.2403    3643.9356   -8244.8702
Averages over the last 11 of 21 rows, steps 10000 to 20000:
Temp PotEng Lx Ly Lz Press Pxx Pyy Pzz eatoms
300.722 -8162.74 28.5912 28.5912 28.5912 -73.711 -124.538 -54.0965 -42.498 -8162.74
Loop time of 6854.66 on 4 procs for 20000 steps with 2000 atoms

Pair  time (%) = 2049.61 (29.901)
Neigh time (%) = 0 (0)
Comm  time (%) = 2997.45 (43.7286)
Outpt time (%) = 8.56054 (0.124887)
Other time (%) = 1799.04 (26.2455)

unfix 2
write_dump all custom dump.img_post_equil.cfg mass type xs ys zs
print "test1"
test1

# ---------- Run 0 ---------------------
compute engperatom all pe/atom

# ---------- Run 0 ---------------------
thermo 1
thermo_style custom step temp pe etotal
dump 1 all custom 1 dump.atom.* id x y z c_engperatom
run 0
Step Temp PotEng TotEng
20000    300.82794   -8162.8573   -8085.1261
Loop time of 0.018975 on 4 procs for 0 steps with 2000 atoms

Pair  time (%) = 0 (0)
Neigh time (%) = 0 (0)
Comm  time (%) = 0 (0)
Outpt time (%) = 0 (0)
Other time (%) = 0.018975 (100)

variable natoms equal "count(all)"
variable teng equal "pe"
variable ecoh equal "v_teng/v_natoms"

Total energy (eV) = -8162.85730440729;
Number of atoms = 2000;
Cohesive energy (eV) = -4.08142865220364;
%% ecoh = -4.08142865220364;

print "BAZINGAA"
BAZINGAA
