LAMMPS (10 Aug 2015)
# LAMMPS Input File for Grain Boundaries
# Mark Tschopp, Dec2009
# This file will generate a single Sigma5(310) STGB

 # ---------- Initialize Simulation ---------------------
clear
units metal
dimension 3
boundary p p p
atom_style atomic

 # ---------- Create Atomistic Structure ---------------------
lattice fcc 3.615
Lattice spacing in x,y,z = 3.615 3.615 3.615
region whole block 0.000000 12.807225 -64.0361225 64.0361225 0.000000 3.715000 units box
create_box 2 whole
Created orthogonal box = (0 -64.0361 0) to (12.8072 64.0361 3.715)
region upper block INF INF 0.000000 64.0361225 INF INF units box

lattice fcc 3.615 orient x 0 3 1 orient y  0 -1 3 orient z 1 0 0
Lattice spacing in x,y,z = 4.57265 4.57265 3.615

 create_atoms 1 region upper
Created 393 atoms
region lower block INF INF -64.0361225 0.000000 INF INF units box
lattice fcc 3.615 orient x 0 3 -1 orient y  0 1 3 orient z 1 0 0
Lattice spacing in x,y,z = 4.57265 4.57265 3.615

 create_atoms 2 region lower
Created 393 atoms
group upper type 1
393 atoms in group upper
group lower type 2
393 atoms in group lower
#replicate 1 1 1

 # ---------- Define Interatomic Potential ---------------------
pair_style eam/alloy
pair_coeff * * Cu01.eam.alloy Cu Cu
neighbor 2.0 bin
neigh_modify delay 10 check yes

 # ---------- Displace atoms and delete overlapping atoms ---------------------
displace_atoms upper move 0 0 0 units lattice
delete_atoms overlap 0.35 lower upper
  2 neighbor list requests
  update every 1 steps, delay 10 steps, check yes
Deleted 6 atoms, new total = 780

 # ---------- Define Settings ---------------------
compute csym all centro/atom fcc
compute eng all pe/atom
compute eatoms all reduce sum c_eng

#write_dump all custom dump.img_orig.cfg mass type xs ys zs

 # ---------- Run Minimization ---------------------
write_dump all custom dump.img_post_equil_10.cfg mass type xs ys zs
reset_timestep 0
thermo 10
thermo_style custom step pe lx ly lz press pxx pyy pzz c_eatoms
dump 		1 all cfg 25 dump.sig5_minimization_*.cfg mass type xs ys zs c_csym c_eng fx fy fz
dump_modify     1 element Cu Cu
min_style cg
minimize 1e-15 1e-15 5000 5000
  2 neighbor list requests
  update every 1 steps, delay 0 steps, check yes
Step PotEng Lx Ly Lz Press Pxx Pyy Pzz eatoms
0    3142172.2    12.807225    128.07225        3.715 1.233822e+08    6015046.8    713760.01 3.6341779e+08    3142172.2
Loop time of 7.40736 on 1 procs for 927 steps with 780 atoms

Minimization stats:
  Stopping criterion = energy tolerance
  Energy initial, next-to-last, final =
  Force two-norm initial, final = 1.19559e+06 2.42899e-05
  Force max component initial, final = 51742.5 5.91186e-06
  Final line search alpha, max atom move = 1 5.91186e-06
  Iterations, force evaluations = 927 1751

Pair  time (%) = 6.86885 (92.7301)
Neigh time (%) = 0.0435446 (0.587856)
Comm  time (%) = 0.141662 (1.91244)
Outpt time (%) = 0.299016 (4.03674)
Other time (%) = 0.0542854 (0.732858)

undump 1

 # ---------- Run Minimization 2---------------------
# Now allow the box to expand/contract perpendicular to the grain boundary
reset_timestep 0
thermo 10
thermo_style custom step pe lx ly lz press pxx pyy pzz c_eatoms
fix 1 all box/relax y 0 vmax 0.001
min_style cg
minimize 1e-15 1e-15 5000 5000
Step PotEng Lx Ly Lz Press Pxx Pyy Pzz eatoms
0   -1666.7708    12.807225    128.07225        3.715    1630379.1    1599968.6    1573838.4    1717330.4   -1666.7708
Averages over the last 213 of 425 rows, steps 2120 to 4236:
PotEng Lx Ly Lz Press Pxx Pyy Pzz eatoms
-2704.01 12.8072 198.652 3.715 -2343.74 -4089.17 78.4484 -3020.49 -2704.01
Loop time of 15.1841 on 1 procs for 4236 steps with 780 atoms

Minimization stats:
  Stopping criterion = max force evaluations
  Energy initial, next-to-last, final =
  Force two-norm initial, final = 5985.75 0.978261
  Force max component initial, final = 5985.75 0.338863
  Final line search alpha, max atom move = 0.000670194 0.000227104
  Iterations, force evaluations = 4236 5001

Pair  time (%) = 13.5212 (89.0481)
Neigh time (%) = 0.21569 (1.4205)
Comm  time (%) = 0.584381 (3.84864)
Outpt time (%) = 0.0271369 (0.178719)
Other time (%) = 0.835741 (5.50406)

 # ---------- Calculate GB Energy ---------------------
variable minimumenergy equal -3.360000
variable esum equal "v_minimumenergy * count(all)"
variable xseng equal "c_eatoms - (v_minimumenergy * count(all))"
variable gbarea equal "lx * lz * 2"
variable gbe equal "(c_eatoms - (v_minimumenergy * count(all)))/v_gbarea"
variable gbemJm2 equal -1.12336033627513*16021.7733
variable gbernd equal round(-17998.2246420119)
GB energy is -17998.2246420119 mJ/m^2

 # ---------- Dump data into Data file -------------
reset_timestep 0
dump 		1 all cfg 1000 dump.al_sig5_310_*.cfg mass type xs ys zs c_csym c_eng fx fy fz
dump_modify     1 element Cu Cu
minimize 1e-15 1e-15 5000 5000
Step PotEng Lx Ly Lz Press Pxx Pyy Pzz eatoms
0   -2727.6964    12.807225    197.75299        3.715   -8845.4842   -10196.018     73.90679   -16414.342   -2727.6964
Averages over the last 126 of 252 rows, steps 1260 to 2505:
PotEng Lx Ly Lz Press Pxx Pyy Pzz eatoms
-2729.08 12.8072 197.503 3.715 -8328.17 -8818.27 -3.01871 -16163.2 -2729.08
Loop time of 13.9302 on 1 procs for 2505 steps with 780 atoms

Minimization stats:
  Stopping criterion = max force evaluations
  Energy initial, next-to-last, final =
  Force two-norm initial, final = 1.03265 0.000855632
  Force max component initial, final = 0.434021 0.000353387
  Final line search alpha, max atom move = 0.622196 0.000219876
  Iterations, force evaluations = 2505 5000

Pair  time (%) = 12.8776 (92.4439)
Neigh time (%) = 0.00711002 (0.0510402)
Comm  time (%) = 0.210717 (1.51266)
Outpt time (%) = 0.0310208 (0.222687)
Other time (%) = 0.803738 (5.76974)

undump 1

write_restart restart.al_sig5_310_stgb
  2 neighbor list requests
  update every 1 steps, delay 10 steps, check yes
write_dump all custom dump.img_post_minimize_10.cfg mass type xs ys zs
print "All done"
All done
