units metal
dimension 3
boundary p p p
atom_style atomic
variable latparam equal 4.22786

# ---------- Create Atoms ---------------------
lattice 	bcc 4.22786
Lattice spacing in x,y,z = 4.22786 4.22786 4.22786
region	whole block 0 10 0 10 0 10 units lattice
create_box   1 whole
Created orthogonal box = (0 0 0) to (42.2786 42.2786 42.2786)
create_atoms 1 region whole
Created 2000 atoms

# ---------- Define Interatomic Potential ---------------------
pair_style eam/alloy
pair_coeff * * Na.eam.fs Na

compute csym all centro/atom bcc
compute eng all pe/atom
compute eatoms all reduce sum c_eng

 # ----------- EQUILIBRATION --------------------
write_dump all custom dump.img_pre_equil.cfg mass type xs ys zs
reset_timestep	0
timestep 0.001
velocity all create 600 12345 mom yes rot no
fix 2 all npt temp 600 600 0.01 iso 0 0 1 drag 1

thermo 1000
thermo_style custom step temp pe lx ly lz press pxx pyy pzz c_eatoms
dump 5 all cfg 1000 dump.equal_*.cfg mass type xs ys zs c_csym c_eng fx fy fz
dump_modify     5 element Na

# Run for at least 10 picosecond (assuming 1 fs timestep)
write_dump all custom dump.img_post_equil.cfg mass type xs ys zs

run 20000
  2 neighbor list requests
  update every 1 steps, delay 10 steps, check yes
Step Temp PotEng Lx Ly Lz Press Pxx Pyy Pzz eatoms
0          600    -2222.044      42.2786      42.2786      42.2786    2191.7001    2159.9914    2184.2378    2230.8712    -2222.044
Averages over the last 11 of 21 rows, steps 10000 to 20000:
Temp PotEng Lx Ly Lz Press Pxx Pyy Pzz eatoms
600.311 -1973.76 44.5989 44.5989 44.5989 -59.3302 -37.9265 -62.8503 -77.2137 -1973.76
Loop time of 7476.29 on 4 procs for 20000 steps with 2000 atoms

Pair  time (%) = 2266.81 (30.32)
Neigh time (%) = 5.65949 (0.0756991)
Comm  time (%) = 3331.15 (44.5562)
Outpt time (%) = 10.0704 (0.134698)
Other time (%) = 1862.6 (24.9135)

unfix 2
write_dump all custom dump.img_post_equil.cfg mass type xs ys zs
print "test1"
test1

# ---------- Run 0 ---------------------
compute engperatom all pe/atom

# ---------- Run 0 ---------------------
thermo 1
thermo_style custom step temp pe etotal
dump 1 all custom 1 dump.atom.* id x y z c_engperatom
run 0
Step Temp PotEng TotEng
20000    598.08906   -1972.2833   -1817.7425
Loop time of 0.0141907 on 4 procs for 0 steps with 2000 atoms

Pair  time (%) = 0 (0)
Neigh time (%) = 0 (0)
Comm  time (%) = 0 (0)
Outpt time (%) = 0 (0)
Other time (%) = 0.0141907 (100)

variable natoms equal "count(all)"
variable teng equal "pe"
variable ecoh equal "v_teng/v_natoms"

Total energy (eV) = -1972.28334491236;
Number of atoms = 2000;
Cohesive energy (eV) = -0.98614167245618;
%% ecoh = -0.98614167245618;

print "BAZINGAA"
BAZINGAA
