units metal
dimension 3
boundary p p p
atom_style atomic
variable latparam equal 3.52

# ---------- Create Atoms ---------------------
lattice 	fcc 3.52
Lattice spacing in x,y,z = 3.52 3.52 3.52
region	whole block 0 10 0 10 0 10 units lattice
create_box   1 whole
Created orthogonal box = (0 0 0) to (35.2 35.2 35.2)
create_atoms 1 region whole
Created 4000 atoms

# ---------- Define Interatomic Potential ---------------------
pair_style eam/alloy
pair_coeff * * Ni99.eam.alloy Ni

compute csym all centro/atom fcc
compute eng all pe/atom
compute eatoms all reduce sum c_eng

 # ----------- EQUILIBRATION --------------------
write_dump all custom dump.img_pre_equil.cfg mass type xs ys zs
reset_timestep	0
timestep 0.001
velocity all create 300 12345 mom yes rot no
fix 2 all npt temp 300 300 0.01 iso 0 0 1 drag 1

thermo 1000
thermo_style custom step temp pe lx ly lz press pxx pyy pzz c_eatoms
dump 5 all cfg 1000 dump.equal_*.cfg mass type xs ys zs c_csym c_eng fx fy fz
dump_modify     5 element Ni

# Run for at least 10 picosecond (assuming 1 fs timestep)
#write_dump all custom dump.img_post_equil.cfg mass type xs ys zs

run 20000
  2 neighbor list requests
  update every 1 steps, delay 10 steps, check yes
Step Temp PotEng Lx Ly Lz Press Pxx Pyy Pzz eatoms
0          300       -17800         35.2         35.2         35.2    3796.8993    3722.0631    3855.5868     3813.048       -17800
Averages over the last 11 of 21 rows, steps 10000 to 20000:
Temp PotEng Lx Ly Lz Press Pxx Pyy Pzz eatoms
299.567 -17652.4 35.3299 35.3299 35.3299 1.76279 116.497 -42.0011 -69.2076 -17652.4
Loop time of 7577.24 on 4 procs for 20000 steps with 4000 atoms

Pair  time (%) = 3314.09 (43.7375)
Neigh time (%) = 0 (0)
Comm  time (%) = 2732.99 (36.0684)
Outpt time (%) = 9.08856 (0.119946)
Other time (%) = 1521.07 (20.0742)

unfix 2
write_dump all custom dump.img_post_equil.cfg mass type xs ys zs
print "test1"
test1

# ---------- Run 0 ---------------------
compute engperatom all pe/atom

# ---------- Run 0 ---------------------
thermo 1
thermo_style custom step temp pe etotal
dump 1 all custom 1 dump.atom.* id x y z c_engperatom
run 0
Step Temp PotEng TotEng
20000    299.00262   -17652.588    -17498.03
Loop time of 5.00679e-06 on 4 procs for 0 steps with 4000 atoms

Pair  time (%) = 0 (0)
Neigh time (%) = 0 (0)
Comm  time (%) = 0 (0)
Outpt time (%) = 0 (0)
Other time (%) = 5.00679e-06 (100)

variable natoms equal "count(all)"
variable teng equal "pe"
variable ecoh equal "v_teng/v_natoms"

Total energy (eV) = -17652.5882958213;
Number of atoms = 4000;
Cohesive energy (eV) = -4.41314707395532;
%% ecoh = -4.41314707395532;

print "BAZINGAA"
BAZINGAA
