LAMMPS (10 Aug 2015)
# LAMMPS Input File for Grain Boundaries
# Mark Tschopp, Dec2009
# This file will generate a single Sigma5(310) STGB

 # ---------- Initialize Simulation ---------------------
clear
units metal
dimension 3
boundary p p p
atom_style atomic

 # ---------- Create Atomistic Structure ---------------------
lattice bcc 2.855324
Lattice spacing in x,y,z = 2.85532 2.85532 2.85532
region whole block 0.000000 12.807225 -64.0361225 64.0361225 0.000000 2.865324 units box
create_box 2 whole
Created orthogonal box = (0 -64.0361 0) to (12.8072 64.0361 2.86532)
region upper block INF INF 0.000000 64.0361225 INF INF units box

lattice bcc 2.855324 orient x 0 3 1 orient y  0 -1 3 orient z 1 0 0
Lattice spacing in x,y,z = 3.61173 3.61173 2.85532

 create_atoms 1 region upper
Created 317 atoms
region lower block INF INF -64.0361225 0.000000 INF INF units box
lattice bcc 2.855324 orient x 0 3 -1 orient y  0 1 3 orient z 1 0 0
Lattice spacing in x,y,z = 3.61173 3.61173 2.85532

 create_atoms 2 region lower
Created 317 atoms
group upper type 1
317 atoms in group upper
group lower type 2
317 atoms in group lower
replicate 1 1 1
  orthogonal box = (0 -64.0361 0) to (12.8072 64.0361 2.86532)
  634 atoms

 # ---------- Define Interatomic Potential ---------------------
pair_style eam/fs
pair_coeff * * Fe_5.eam.fs Fe Fe
neighbor 2.0 bin
neigh_modify delay 10 check yes

 # ---------- Displace atoms and delete overlapping atoms ---------------------
displace_atoms upper move 0 0 0 units lattice
delete_atoms overlap 0.35 lower upper
  2 neighbor list requests
  update every 1 steps, delay 10 steps, check yes
Deleted 2 atoms, new total = 632

 # ---------- Define Settings ---------------------
compute csym all centro/atom bcc
compute eng all pe/atom
compute eatoms all reduce sum c_eng

#write_dump all custom dump.img_orig.cfg mass type xs ys zs

 # ---------- Run Minimization ---------------------
write_dump all custom dump.img_post_equil_0.cfg mass type xs ys zs
reset_timestep 0
thermo 1000
thermo_style custom step pe lx ly lz press pxx pyy pzz c_eatoms
dump 		1 all cfg 25 dump.sig5_minimization_*.cfg mass type xs ys zs c_csym c_eng fx fy fz
dump_modify     1 element Fe Fe
min_style cg
minimize 1e-15 1e-15 50000 50000
  2 neighbor list requests
  update every 1 steps, delay 0 steps, check yes
Step PotEng Lx Ly Lz Press Pxx Pyy Pzz eatoms
0     2.11e+16    12.807225    128.07225     2.865324 2.3976609e+18    2919531.8      3769627 7.1929827e+18     2.11e+16
Loop time of 36.4743 on 1 procs for 1477 steps with 632 atoms

Minimization stats:
  Stopping criterion = energy tolerance
  Energy initial, next-to-last, final =
  Force two-norm initial, final = 2.05426e+17 0.000139445
  Force max component initial, final = 1e+16 6.30987e-05
  Final line search alpha, max atom move = 1 6.30987e-05
  Iterations, force evaluations = 1477 2882

Pair  time (%) = 34.6564 (95.0159)
Neigh time (%) = 0.102158 (0.280082)
Comm  time (%) = 0.571979 (1.56817)
Outpt time (%) = 0.946544 (2.5951)
Other time (%) = 0.197251 (0.540794)

undump 1

 # ---------- Run Minimization 2---------------------
# Now allow the box to expand/contract perpendicular to the grain boundary
reset_timestep 0
thermo 1000
thermo_style custom step pe lx ly lz press pxx pyy pzz c_eatoms
fix 1 all box/relax y 0 vmax 0.001
min_style cg
minimize 1e-15 1e-15 50000 50000
Step PotEng Lx Ly Lz Press Pxx Pyy Pzz eatoms
0   -1680.1085    12.807225    128.07225     2.865324    1650246.4    1614702.1    1555831.4    1780205.7   -1680.1085
Averages over the last 5 of 9 rows, steps 4000 to 7151:
PotEng Lx Ly Lz Press Pxx Pyy Pzz eatoms
-2513.23 12.8072 195.553 2.86532 79385.7 180975 -292.571 57474.5 -2513.23
Loop time of 85.7973 on 1 procs for 7151 steps with 632 atoms

Minimization stats:
  Stopping criterion = energy tolerance
  Energy initial, next-to-last, final =
  Force two-norm initial, final = 4563.9 0.000348464
  Force max component initial, final = 4563.9 0.000288398
  Final line search alpha, max atom move = 1 0.000288398
  Iterations, force evaluations = 7151 10280

Pair  time (%) = 78.0614 (90.9836)
Neigh time (%) = 0.499883 (0.582633)
Comm  time (%) = 2.42017 (2.8208)
Outpt time (%) = 0.00121068 (0.00141109)
Other time (%) = 4.81459 (5.61159)

 # ---------- Calculate GB Energy ---------------------
variable minimumenergy equal -3.360000
variable esum equal "v_minimumenergy * count(all)"
variable xseng equal "c_eatoms - (v_minimumenergy * count(all))"
variable gbarea equal "lx * lz * 2"
variable gbe equal "(c_eatoms - (v_minimumenergy * count(all)))/v_gbarea"
variable gbemJm2 equal -5.33086072976182*16021.7733
variable gbernd equal round(-85409.8421061165)
GB energy is -85409.8421061165 mJ/m^2

 # ---------- Dump data into Data file -------------
reset_timestep 0
dump 		1 all cfg 1000 dump.al_sig5_310_*.cfg mass type xs ys zs c_csym c_eng fx fy fz
dump_modify     1 element Fe Fe
minimize 1e-15 1e-15 5000 5000
Step PotEng Lx Ly Lz Press Pxx Pyy Pzz eatoms
0   -2514.7716    12.807225    195.51735     2.865324    79236.756    179913.12 -0.098314805    57797.244   -2514.7716
Loop time of 0.289535 on 1 procs for 17 steps with 632 atoms

Minimization stats:
  Stopping criterion = energy tolerance
  Energy initial, next-to-last, final =
  Force two-norm initial, final = 0.000481762 0.000531259
  Force max component initial, final = 0.000440274 0.000524548
  Final line search alpha, max atom move = 1 0.000524548
  Iterations, force evaluations = 17 34

Pair  time (%) = 0.258102 (89.1436)
Neigh time (%) = 0 (0)
Comm  time (%) = 0.00436775 (1.50854)
Outpt time (%) = 0 (0)
Other time (%) = 0.0270653 (9.34786)

undump 1

write_restart restart.al_sig5_310_stgb
  2 neighbor list requests
  update every 1 steps, delay 10 steps, check yes
write_dump all custom dump.img_post_minimize_0.cfg mass type xs ys zs
print "All done"
All done
