units metal
dimension 3
boundary p p p
atom_style atomic
variable latparam equal 3.615

# ---------- Create Atoms ---------------------
lattice 	fcc 3.615
Lattice spacing in x,y,z = 3.615 3.615 3.615
region	whole block 0 10 0 10 0 10 units lattice
create_box   1 whole
Created orthogonal box = (0 0 0) to (36.15 36.15 36.15)
create_atoms 1 region whole
Created 4000 atoms

# ---------- Define Interatomic Potential ---------------------
pair_style eam/alloy
pair_coeff * * Cu_mishin1.eam.alloy Cu
Reading potential file Cu_mishin1.eam.alloy with DATE: 2007-10-12

compute csym all centro/atom fcc
compute eng all pe/atom
compute eatoms all reduce sum c_eng

 # ----------- EQUILIBRATION --------------------
write_dump all custom dump.img_pre_equil.cfg mass type xs ys zs
reset_timestep	0
timestep 0.001
velocity all create 300 12345 mom yes rot no
fix 2 all npt temp 300 300 0.01 iso 0 0 1 drag 1

thermo 1000
thermo_style custom step temp pe lx ly lz press pxx pyy pzz c_eatoms
dump 5 all cfg 1000 dump.equal_*.cfg mass type xs ys zs c_csym c_eng fx fy fz
dump_modify     5 element Cu

 #Run for at least 10 picosecond (assuming 1 fs timestep)
write_dump all custom dump.img_post_equil.cfg mass type xs ys zs

run 20000
  2 neighbor list requests
  update every 1 steps, delay 10 steps, check yes
Step Temp PotEng Lx Ly Lz Press Pxx Pyy Pzz eatoms
0          300   -14160.873        36.15        36.15        36.15    3420.1323    3351.0424    3474.3135     3435.041   -14160.873
Averages over the last 11 of 21 rows, steps 10000 to 20000:
Temp PotEng Lx Ly Lz Press Pxx Pyy Pzz eatoms
299.779 -14002.3 36.317 36.317 36.317 190.924 217.275 109.261 246.236 -14002.3
Loop time of 1531.45 on 4 procs for 20000 steps with 4000 atoms

Pair  time (%) = 750.47 (49.004)
Neigh time (%) = 0 (0)
Comm  time (%) = 463.662 (30.2761)
Outpt time (%) = 2.86364 (0.186989)
Other time (%) = 314.451 (20.5329)

unfix 2
write_dump all custom dump.img_post_equil.cfg mass type xs ys zs
print "test1"
test1

# ---------- Run 0 ---------------------
compute engperatom all pe/atom

# ---------- Run 0 ---------------------
thermo 1
thermo_style custom step temp pe etotal
dump 1 all custom 1 dump.atom.* id x y z c_engperatom
run 0
Step Temp PotEng TotEng
20000    300.67177   -14000.946   -13845.526
Loop time of 7.38502e-05 on 4 procs for 0 steps with 4000 atoms

Pair  time (%) = 0 (0)
Neigh time (%) = 0 (0)
Comm  time (%) = 0 (0)
Outpt time (%) = 0 (0)
Other time (%) = 7.38502e-05 (100)

variable natoms equal "count(all)"
variable teng equal "pe"
variable ecoh equal "v_teng/v_natoms"

Total energy (eV) = -14000.9461425654;
Number of atoms = 4000;
Cohesive energy (eV) = -3.50023653564135;
%% ecoh = -3.50023653564135;

print "BAZINGAA"
BAZINGAA
