units metal
dimension 3
boundary p p p
atom_style atomic
variable latparam equal 3.615

# ---------- Create Atoms ---------------------
lattice 	fcc 3.615
Lattice spacing in x,y,z = 3.615 3.615 3.615
region	whole block 0 10 0 10 0 10 units lattice
create_box   1 whole
Created orthogonal box = (0 0 0) to (36.15 36.15 36.15)
create_atoms 1 region whole
Created 4000 atoms

# ---------- Define Interatomic Potential ---------------------
pair_style eam/alloy
pair_coeff * * Cu_mishin1.eam.alloy Cu
Reading potential file Cu_mishin1.eam.alloy with DATE: 2007-10-12

compute csym all centro/atom fcc
compute eng all pe/atom
compute eatoms all reduce sum c_eng

 # ----------- EQUILIBRATION --------------------
write_dump all custom dump.img_pre_equil.cfg mass type xs ys zs
reset_timestep	0
timestep 0.001
velocity all create 600 12345 mom yes rot no
fix 2 all npt temp 600 600 0.01 iso 0 0 1 drag 1

thermo 1000
thermo_style custom step temp pe lx ly lz press pxx pyy pzz c_eatoms
dump 5 all cfg 1000 dump.equal_*.cfg mass type xs ys zs c_csym c_eng fx fy fz
dump_modify     5 element Cu

 #Run for at least 10 picosecond (assuming 1 fs timestep)
write_dump all custom dump.img_post_equil.cfg mass type xs ys zs

run 20000
  2 neighbor list requests
  update every 1 steps, delay 10 steps, check yes
Step Temp PotEng Lx Ly Lz Press Pxx Pyy Pzz eatoms
0          600   -14160.873        36.15        36.15        36.15    6926.2904    6788.1105    7034.6528    6956.1078   -14160.873
Averages over the last 11 of 21 rows, steps 10000 to 20000:
Temp PotEng Lx Ly Lz Press Pxx Pyy Pzz eatoms
599.912 -13834.3 36.5053 36.5053 36.5053 92.3151 252.265 -99.966 124.646 -13834.3
Loop time of 1528.79 on 4 procs for 20000 steps with 4000 atoms

Pair  time (%) = 756.99 (49.5156)
Neigh time (%) = 0.0418603 (0.00273813)
Comm  time (%) = 454.937 (29.7579)
Outpt time (%) = 2.7592 (0.180483)
Other time (%) = 314.064 (20.5433)

unfix 2
write_dump all custom dump.img_post_equil.cfg mass type xs ys zs
print "test1"
test1

# ---------- Run 0 ---------------------
compute engperatom all pe/atom

# ---------- Run 0 ---------------------
thermo 1
thermo_style custom step temp pe etotal
dump 1 all custom 1 dump.atom.* id x y z c_engperatom
run 0
Step Temp PotEng TotEng
20000    601.24897   -13834.572   -13523.779
Loop time of 5.72205e-06 on 4 procs for 0 steps with 4000 atoms

Pair  time (%) = 0 (0)
Neigh time (%) = 0 (0)
Comm  time (%) = 0 (0)
Outpt time (%) = 0 (0)
Other time (%) = 5.72205e-06 (100)

variable natoms equal "count(all)"
variable teng equal "pe"
variable ecoh equal "v_teng/v_natoms"

Total energy (eV) = -13834.5716770488;
Number of atoms = 4000;
Cohesive energy (eV) = -3.4586429192622;
%% ecoh = -3.4586429192622;

print "BAZINGAA"
BAZINGAA
