units metal
dimension 3
boundary p p p
atom_style atomic
variable latparam equal 4.05

# ---------- Create Atoms ---------------------
lattice 	fcc 4.05
Lattice spacing in x,y,z = 4.05 4.05 4.05
region	whole block 0 10 0 10 0 10 units lattice
create_box   1 whole
Created orthogonal box = (0 0 0) to (40.5 40.5 40.5)
create_atoms 1 region whole
Created 4000 atoms

# ---------- Define Interatomic Potential ---------------------
pair_style eam/alloy
pair_coeff * * Al99.eam.alloy Al

compute csym all centro/atom fcc
compute eng all pe/atom
compute eatoms all reduce sum c_eng

 # ----------- EQUILIBRATION --------------------
write_dump all custom dump.img_pre_equil.cfg mass type xs ys zs
reset_timestep	0
timestep 0.001
velocity all create 300 12345 mom yes rot no
fix 2 all npt temp 300 300 0.01 iso 0 0 1 drag 1

thermo 1000
thermo_style custom step temp pe lx ly lz press pxx pyy pzz c_eatoms
dump 5 all cfg 1000 dump.equal_*.cfg mass type xs ys zs c_csym c_eng fx fy fz
dump_modify     5 element Al

# Run for at least 10 picosecond (assuming 1 fs timestep)
#write_dump all custom dump.img_post_equil.cfg mass type xs ys zs

run 20000
  2 neighbor list requests
  update every 1 steps, delay 10 steps, check yes
Step Temp PotEng Lx Ly Lz Press Pxx Pyy Pzz eatoms
0          300       -13440         40.5         40.5         40.5    2496.1233    2446.9902    2534.6541    2506.7256       -13440
Averages over the last 11 of 21 rows, steps 10000 to 20000:
Temp PotEng Lx Ly Lz Press Pxx Pyy Pzz eatoms
300.215 -13284.2 40.6486 40.6486 40.6486 136.896 207.858 129.074 73.7556 -13284.2
Loop time of 1464.7 on 4 procs for 20000 steps with 4000 atoms

Pair  time (%) = 745.011 (50.8645)
Neigh time (%) = 0 (0)
Comm  time (%) = 426.794 (29.1387)
Outpt time (%) = 2.34772 (0.160287)
Other time (%) = 290.545 (19.8365)

unfix 2
write_dump all custom dump.img_post_equil.cfg mass type xs ys zs
print "test1"
test1

# ---------- Run 0 ---------------------
compute engperatom all pe/atom

# ---------- Run 0 ---------------------
thermo 1
thermo_style custom step temp pe etotal
dump 1 all custom 1 dump.atom.* id x y z c_engperatom
run 0
Step Temp PotEng TotEng
20000    298.61878   -13284.169   -13129.809
Loop time of 0.0115449 on 4 procs for 0 steps with 4000 atoms

Pair  time (%) = 0 (0)
Neigh time (%) = 0 (0)
Comm  time (%) = 0 (0)
Outpt time (%) = 0 (0)
Other time (%) = 0.0115449 (100)

variable natoms equal "count(all)"
variable teng equal "pe"
variable ecoh equal "v_teng/v_natoms"

Total energy (eV) = -13284.1687353305;
Number of atoms = 4000;
Cohesive energy (eV) = -3.32104218383262;
%% ecoh = -3.32104218383262;

print "BAZINGAA"
BAZINGAA
