units metal
dimension 3
boundary p p p
atom_style atomic
variable latparam equal 3.52

# ---------- Create Atoms ---------------------
lattice 	fcc 3.52
Lattice spacing in x,y,z = 3.52 3.52 3.52
region	whole block 0 10 0 10 0 10 units lattice
create_box   1 whole
Created orthogonal box = (0 0 0) to (35.2 35.2 35.2)
create_atoms 1 region whole
Created 4000 atoms

# ---------- Define Interatomic Potential ---------------------
pair_style eam/alloy
pair_coeff * * Ni99.eam.alloy Ni

compute csym all centro/atom fcc
compute eng all pe/atom
compute eatoms all reduce sum c_eng

 # ----------- EQUILIBRATION --------------------
write_dump all custom dump.img_pre_equil.cfg mass type xs ys zs
reset_timestep	0
timestep 0.001
velocity all create 600 12345 mom yes rot no
fix 2 all npt temp 600 600 0.01 iso 0 0 1 drag 1

thermo 1000
thermo_style custom step temp pe lx ly lz press pxx pyy pzz c_eatoms
dump 5 all cfg 1000 dump.equal_*.cfg mass type xs ys zs c_csym c_eng fx fy fz
dump_modify     5 element Ni

# Run for at least 10 picosecond (assuming 1 fs timestep)
#write_dump all custom dump.img_post_equil.cfg mass type xs ys zs

run 20000
  2 neighbor list requests
  update every 1 steps, delay 10 steps, check yes
Step Temp PotEng Lx Ly Lz Press Pxx Pyy Pzz eatoms
0          600       -17800         35.2         35.2         35.2    7594.6671    7444.9947    7712.0421    7626.9644       -17800
Averages over the last 11 of 21 rows, steps 10000 to 20000:
Temp PotEng Lx Ly Lz Press Pxx Pyy Pzz eatoms
600.004 -17500.4 35.4468 35.4468 35.4468 -22.2413 -36.7163 -15.5198 -14.4878 -17500.4
Loop time of 7562.23 on 4 procs for 20000 steps with 4000 atoms

Pair  time (%) = 3286.49 (43.4593)
Neigh time (%) = 0 (0)
Comm  time (%) = 2738.66 (36.215)
Outpt time (%) = 9.81526 (0.129793)
Other time (%) = 1527.25 (20.1958)

unfix 2
write_dump all custom dump.img_post_equil.cfg mass type xs ys zs
print "test1"
test1

# ---------- Run 0 ---------------------
compute engperatom all pe/atom

# ---------- Run 0 ---------------------
thermo 1
thermo_style custom step temp pe etotal
dump 1 all custom 1 dump.atom.* id x y z c_engperatom
run 0
Step Temp PotEng TotEng
20000    601.36714    -17502.21   -17191.357
Loop time of 7.54595e-05 on 4 procs for 0 steps with 4000 atoms

Pair  time (%) = 0 (0)
Neigh time (%) = 0 (0)
Comm  time (%) = 0 (0)
Outpt time (%) = 0 (0)
Other time (%) = 7.54595e-05 (100)

variable natoms equal "count(all)"
variable teng equal "pe"
variable ecoh equal "v_teng/v_natoms"

Total energy (eV) = -17502.210179483;
Number of atoms = 4000;
Cohesive energy (eV) = -4.37555254487075;
%% ecoh = -4.37555254487075;

print "BAZINGAA"
BAZINGAA
