units metal
dimension 3
boundary p p p
atom_style atomic
variable latparam equal 2.855312

# ---------- Create Atoms ---------------------
lattice 	bcc 2.855312
Lattice spacing in x,y,z = 2.85531 2.85531 2.85531
region	whole block 0 10 0 10 0 10 units lattice
create_box   1 whole
Created orthogonal box = (0 0 0) to (28.5531 28.5531 28.5531)
create_atoms 1 region whole
Created 2000 atoms

# ---------- Define Interatomic Potential ---------------------
pair_style eam/fs
pair_coeff * * Fe_2.eam.fs Fe

compute csym all centro/atom bcc
compute eng all pe/atom
compute eatoms all reduce sum c_eng

 # ----------- EQUILIBRATION --------------------
write_dump all custom dump.img_pre_equil.cfg mass type xs ys zs
reset_timestep	0
timestep 0.001
velocity all create 600 12345 mom yes rot no
fix 2 all npt temp 600 600 0.01 iso 0 0 1 drag 1

thermo 1000
thermo_style custom step temp pe lx ly lz press pxx pyy pzz c_eatoms
dump 5 all cfg 1000 dump.equal_*.cfg mass type xs ys zs c_csym c_eng fx fy fz
dump_modify     5 element Fe

# Run for at least 10 picosecond (assuming 1 fs timestep)
write_dump all custom dump.img_post_equil.cfg mass type xs ys zs

run 20000
  2 neighbor list requests
  update every 1 steps, delay 10 steps, check yes
Step Temp PotEng Lx Ly Lz Press Pxx Pyy Pzz eatoms
0          600   -8244.8702     28.55312     28.55312     28.55312    7137.1338    7034.1947     7112.908    7264.2986   -8244.8702
Averages over the last 11 of 21 rows, steps 10000 to 20000:
Temp PotEng Lx Ly Lz Press Pxx Pyy Pzz eatoms
599.542 -8077.06 28.6736 28.6736 28.6736 -152.731 -210.392 -189.369 -58.4319 -8077.06
Loop time of 7112.28 on 4 procs for 20000 steps with 2000 atoms

Pair  time (%) = 2111.73 (29.6913)
Neigh time (%) = 0 (0)
Comm  time (%) = 3114.85 (43.7954)
Outpt time (%) = 10.0624 (0.141479)
Other time (%) = 1875.64 (26.3718)

unfix 2
write_dump all custom dump.img_post_equil.cfg mass type xs ys zs
print "test1"
test1

# ---------- Run 0 ---------------------
compute engperatom all pe/atom

# ---------- Run 0 ---------------------
thermo 1
thermo_style custom step temp pe etotal
dump 1 all custom 1 dump.atom.* id x y z c_engperatom
run 0
Step Temp PotEng TotEng
20000     595.9643   -8075.3123   -7921.3204
Loop time of 0.0109999 on 4 procs for 0 steps with 2000 atoms

Pair  time (%) = 0 (0)
Neigh time (%) = 0 (0)
Comm  time (%) = 0 (0)
Outpt time (%) = 0 (0)
Other time (%) = 0.0109999 (100)

variable natoms equal "count(all)"
variable teng equal "pe"
variable ecoh equal "v_teng/v_natoms"

Total energy (eV) = -8075.31225898805;
Number of atoms = 2000;
Cohesive energy (eV) = -4.03765612949403;
%% ecoh = -4.03765612949403;

print "BAZINGAA"
BAZINGAA
