units metal
dimension 3
boundary p p p
atom_style atomic
variable latparam equal 4.05

# ---------- Create Atoms ---------------------
lattice 	fcc 4.05
Lattice spacing in x,y,z = 4.05 4.05 4.05
region	whole block 0 10 0 10 0 10 units lattice
create_box   1 whole
Created orthogonal box = (0 0 0) to (40.5 40.5 40.5)
create_atoms 1 region whole
Created 4000 atoms

# ---------- Define Interatomic Potential ---------------------
pair_style eam/alloy
pair_coeff * * Al99.eam.alloy Al

compute csym all centro/atom fcc
compute eng all pe/atom
compute eatoms all reduce sum c_eng

 # ----------- EQUILIBRATION --------------------
write_dump all custom dump.img_pre_equil.cfg mass type xs ys zs
reset_timestep	0
timestep 0.001
velocity all create 600 12345 mom yes rot no
fix 2 all npt temp 600 600 0.01 iso 0 0 1 drag 1

thermo 1000
thermo_style custom step temp pe lx ly lz press pxx pyy pzz c_eatoms
dump 5 all cfg 1000 dump.equal_*.cfg mass type xs ys zs c_csym c_eng fx fy fz
dump_modify     5 element Al

# Run for at least 10 picosecond (assuming 1 fs timestep)
#write_dump all custom dump.img_post_equil.cfg mass type xs ys zs

run 20000
  2 neighbor list requests
  update every 1 steps, delay 10 steps, check yes
Step Temp PotEng Lx Ly Lz Press Pxx Pyy Pzz eatoms
0          600       -13440         40.5         40.5         40.5    4989.5197    4891.2534    5066.5814    5010.7243       -13440
Averages over the last 11 of 21 rows, steps 10000 to 20000:
Temp PotEng Lx Ly Lz Press Pxx Pyy Pzz eatoms
600.82 -13118.9 40.8582 40.8582 40.8582 27.4999 -10.1481 -58.055 150.703 -13118.9
Loop time of 1629.56 on 4 procs for 20000 steps with 4000 atoms

Pair  time (%) = 823.136 (50.5127)
Neigh time (%) = 4.72928 (0.290218)
Comm  time (%) = 487.439 (29.9123)
Outpt time (%) = 3.1465 (0.193089)
Other time (%) = 311.11 (19.0917)

unfix 2
write_dump all custom dump.img_post_equil.cfg mass type xs ys zs
print "test1"
test1

# ---------- Run 0 ---------------------
compute engperatom all pe/atom

# ---------- Run 0 ---------------------
thermo 1
thermo_style custom step temp pe etotal
dump 1 all custom 1 dump.atom.* id x y z c_engperatom
run 0
Step Temp PotEng TotEng
20000    599.26538   -13118.378   -12808.611
Loop time of 5.78761e-05 on 4 procs for 0 steps with 4000 atoms

Pair  time (%) = 0 (0)
Neigh time (%) = 0 (0)
Comm  time (%) = 0 (0)
Outpt time (%) = 0 (0)
Other time (%) = 5.78761e-05 (100)

variable natoms equal "count(all)"
variable teng equal "pe"
variable ecoh equal "v_teng/v_natoms"

Total energy (eV) = -13118.3780791003;
Number of atoms = 4000;
Cohesive energy (eV) = -3.27959451977507;
%% ecoh = -3.27959451977507;

print "BAZINGAA"
BAZINGAA
